test/resources/extensionName/extensionName_1_2.xml
<?xml version="1.0" encoding="UTF-8"?>
<iidm:network xmlns:iidm="http://www.powsybl.org/schema/iidm/1_1" xmlns:lmock="http://www.powsybl.org/schema/iidm/ext/load_mock/1_2" id="test" caseDate="2024-09-17T13:36:37.831000+00:00" forecastDistance="0" sourceFormat="test">
    <iidm:substation id="S1">
        <iidm:voltageLevel id="VL1" nominalV="450" topologyKind="NODE_BREAKER">
            <iidm:nodeBreakerTopology nodeCount="1"/>
            <iidm:load id="Load1" loadType="UNDEFINED" p0="10" q0="20" node="0"/>
        </iidm:voltageLevel>
    </iidm:substation>
    <iidm:extension id="Load1">
        <lmock:loadMock/>
    </iidm:extension>
</iidm:network>
